FoamFile
{
    version         1.4;
    format          ascii;

    root            "";
    case            "";
    instance        "constant";
    local           "";

    class           dictionary;
    object          gmtDict;
}

projection "X9i/5i";
projection2D XZ;
plotBoundaryDots false;
separateLegend true;

FieldsToPlot (
//    [none mesh "black"]
    [T rawValues 285 315 2.5 "$GMTU/colours/green_linear_truncated.cpt"]
    [Uf vectors 40 1 "magenta"]
);

region "-15e3/15e3/0/10e3";
boundaryMarks "5e3/2e3WSen";
