FoamFile {
        version         1.4;
        format          ascii;

        root            "";
        case            "";
        instance        "constant";
        local           "";

        class           dictionary;
        object          gmtDict;
}

projection "X9i/5i";
projection2D XZ;
separateLegend true;
plotBoundaryDots false;
plotZeroValuePolys false;

FieldsToPlot (
	[T_diff rawValues -1.0 1.0 0.1 "$GMTU/colours/red_white_blue.cpt"]
        [none mesh "thick,gray"]
//      [none numbered 0]
);

region "-15e3/15e3/0/10e3";
boundaryMarks "5e3/2e3WSen";
